% vim:syntax=erlang:ts=2:et
%=============================================================================%
%             Compressible, Steady-State, Inviscid Simulation:                %
%=============================================================================%
MESH_FILENAME= Mesh.su2
MESH_FORMAT=   SU2

% This is not a restart:
RESTART_SOL=   NO
%RESTART_FILENAME =

SOLVER=        EULER    % Or FEM_EULER
TIME_DOMAIN=   NO       % Steady-State

% The maximum number of iteratrions in the Steady-State simulation:
ITER=          100000   % Uhh!!!

% Stopping criterion based on iterations convergence (XXX: so it is presumably
% a Density-Based solver?):
CONV_FIELD=             RMS_DENSITY
CONV_RESIDUAL_MINVAL=   -5

% Model:
FLUID_MODEL=            STANDARD_AIR
SYSTEM_MEASUREMENTS=    SI
REF_DIMENSIONALIZATION= DIMENSIONAL

% Numerical Methods:
CONV_NUM_METHOD_FLOW=   JST
% The following is for UpWind (eg ROE) methods only:
%MUSCL_FLOW=            NO
%SLOPE_LIMITER_FLOW=    BARTH_JESPERSEN

% Free-Stream Definition:
FREESTREAM_OPTION=      TEMPERATURE_FS
FREESTREAM_PRESSURE=    101325
FREESTREAM_TEMPERATURE= 288.15
GAS_CONSTANT=           287.053
GAMMA_VALUE=            1.4

% Boundaries:
MARKER_EULER=           ( Wall )
MARKER_FAR=             ( FarAway )

% Output:
MARKER_MONITORING=      ( Wall )
REF_LENGTH=             1.0
REF_AREA=               1.0
HISTORY_OUTPUT=         YES
SCREEN_OUTPUT=          ( ITER, RMS_DENSITY, DRAG, LIFT )

% The variable part: Mach Number and the AngleOfAttack (in degrees):
% Set the "MACH_NUMBER" and the "AOA" variables:
