% vim:syntax=erlang:ts=2:et
%=============================================================================%
%              Compressible, Steady-State, Viscous Simulation:                %
%=============================================================================%
MESH_FILENAME= Mesh-VisT.su2
MESH_FORMAT=   SU2

% This is not a restart:
RESTART_SOL=   NO

SOLVER=        RANS
TIME_DOMAIN=   NO       % Steady-State

% The maximum number of iteratrions in the Steady-State simulation:
ITER=          100000   % Uhh!!!

% Stopping criterion based on iterations convergence (XXX: so it is presumably
% a Density-Based solver?):
% CONV_FIELD=           RMS_DENSITY
% CONV_RESIDUAL_MINVAL= -5
CONV_FIELD=             LIFT
CONV_STARTITER=         100
CONV_CAUCHY_ELEMS=      100
CONV_CAUCHY_EPS=        5E-4

% Model:
FLUID_MODEL=            STANDARD_AIR
SYSTEM_MEASUREMENTS=    SI
REF_DIMENSIONALIZATION= DIMENSIONAL
KIND_TURB_MODEL=        SST

% Numerical Methods:
CONV_NUM_METHOD_FLOW=   JST
% The following is for UpWind (eg ROE) methods only:
%MUSCL_FLOW=            NO
%SLOPE_LIMITER_FLOW=    BARTH_JESPERSEN
CFL_NUMBER=             1

% Pre-Conditioning:
%LINEAR_SOLVER_PREC=    ILU
%LINEAR_SOLVER_ILU_FILL_IN= 1

% Free-Stream Definition:
FREESTREAM_OPTION=      TEMPERATURE_FS
FREESTREAM_TEMPERATURE= 288.15
%FREESTREAM_PRESSURE=   101325
%FREESTREAM_DENSITY=    1.225
%FREESTREAM_VISCOSITY=  1.802E-5
%MOLECULAR_WEIGHT=      28.9647
%SPECIFIC_HEAT_CP=      1007
%GAS_CONSTANT=          287.05
%GAMMA_VALUE=           1.4
REYNOLDS_LENGTH=        1.0

% Boundaries:
MARKER_HEATFLUX=        ( Wall, 0 ) % Adiabatic Wall as usual
MARKER_FAR=             ( FarAway )
MARKER_WALL_FUNCTIONS=  ( Wall, STANDARD_WALL_FUNCTION)
WALLMODEL_MAXITER=      1000
WALLMODEL_MINYPLUS=     5.0

% Output:
MARKER_MONITORING=      ( Wall )
REF_LENGTH=             1.0
REF_AREA=               1.0
HISTORY_OUTPUT=         YES
SCREEN_OUTPUT=          ( ITER, DRAG, LIFT )
%SCREEN_OUTPUT=         ( ITER, RMS_DENSITY, DRAG, LIFT )

% The variable part: Mach Number and the AngleOfAttack (in degrees):
% Set the "MACH_NUMBER" and the "AOA" variables:
MACH_NUMBER=            0.6
AOA=                    15
REYNOLDS_NUMBER=        1.4E7
